<routes>
    <vType id="NE_left" accel="3.0" decel="4.5" carFollowModel="IDM" startupDelay="0.5" tau="2.0" length="5" vClass="private" speedFactor="norm(0.9, 0.15)" 
           color="128, 128, 128" />
    <vType id="ES_left" accel="3.0" decel="4.5" carFollowModel="IDM" startupDelay="0.5" tau="2.0" length="5" vClass="private" speedFactor="norm(0.9, 0.15)"
           color="128, 128, 128" />
    <vType id="SW_left" accel="3.0" decel="4.5" carFollowModel="IDM" startupDelay="0.5" tau="2.0" length="5" vClass="private" speedFactor="norm(0.9, 0.15)"
           color="128, 128, 128"/>
    <vType id="WN_left" accel="3.0" decel="4.5" carFollowModel="IDM" startupDelay="0.5" tau="2.0" length="5" vClass="private" speedFactor="norm(0.9, 0.15)"
           color="128, 128, 128"/>

    <vType id="NS_through" accel="3.0" decel="4.5" carFollowModel="IDM" startupDelay="0.5" tau="2.0" length="5" vClass="custom1" speedFactor="norm(0.9, 0.15)"
           color="255, 255, 0"/>
    <vType id="EW_through" accel="3.0" decel="4.5" carFollowModel="IDM" startupDelay="0.5" tau="2.0" length="5" vClass="custom1" speedFactor="norm(0.9, 0.15)"
           color="255, 255, 0"/>
    <vType id="SN_through" accel="3.0" decel="4.5" carFollowModel="IDM" startupDelay="0.5" tau="2.0" length="5" vClass="custom1" speedFactor="norm(0.9, 0.15)"
           color="255, 255, 0"/>
    <vType id="WE_through" accel="3.0" decel="4.5" carFollowModel="IDM" startupDelay="0.5" tau="2.0" length="5" vClass="custom1" speedFactor="norm(0.9, 0.15)"
           color="255, 255, 0"/>

    <vType id="NW_right" accel="3.0" decel="4.5" carFollowModel="IDM" startupDelay="0.5" tau="2.0" length="5" vClass="custom2" speedFactor="norm(0.9, 0.15)"
           color="128, 255, 255"/>
    <vType id="EN_right" accel="3.0" decel="4.5" carFollowModel="IDM" startupDelay="0.5" tau="2.0" length="5" vClass="custom2" speedFactor="norm(0.9, 0.15)"
           color="128, 255, 255"/>
    <vType id="SE_right" accel="3.0" decel="4.5" carFollowModel="IDM" startupDelay="0.5" tau="2.0" length="5" vClass="custom2" speedFactor="norm(0.9, 0.15)"
           color="128, 255, 255"/>
    <vType id="WS_right" accel="3.0" decel="4.5" carFollowModel="IDM" startupDelay="0.5" tau="2.0" length="5" vClass="custom2" speedFactor="norm(0.9, 0.15)"
           color="128, 255, 255"/>

    <route id="EN" edges="east_in north_out" />
    <route id="EW" edges="east_in west_out" />
    <route id="ES" edges="east_in south_out" />
    <route id="NW" edges="north_in west_out" />
    <route id="NS" edges="north_in south_out" />
    <route id="NE" edges="north_in east_out" />
    <route id="WS" edges="west_in south_out" />
    <route id="WE" edges="west_in east_out" />
    <route id="WN" edges="west_in north_out" />
    <route id="SE" edges="south_in east_out" />
    <route id="SN" edges="south_in north_out" />
    <route id="SW" edges="south_in west_out" />

        
    <flow id="NS0" color="1,1,0"  begin="0.0" end= "360.0" vehsPerHour="179" type="NS_through" route="NS">
    </flow>
    <flow id="NE0" color="1,1,0"  begin="0.0" end= "360.0" vehsPerHour="146" type="NE_left" route="NE">
    </flow>
    <flow id="EW0" color="1,1,0"  begin="0.0" end= "360.0" vehsPerHour="98" type="EW_through" route="EW">
    </flow>
    <flow id="ES0" color="1,1,0"  begin="0.0" end= "360.0" vehsPerHour="184" type="ES_left" route="ES">
    </flow>
    <flow id="SN0" color="1,1,0"  begin="0.0" end= "360.0" vehsPerHour="158" type="SN_through" route="SN">
    </flow>
    <flow id="SW0" color="1,1,0"  begin="0.0" end= "360.0" vehsPerHour="275" type="SW_left" route="SW">
    </flow>
    <flow id="WE0" color="1,1,0"  begin="0.0" end= "360.0" vehsPerHour="150" type="WE_through" route="WE">
    </flow>
    <flow id="WN0" color="1,1,0"  begin="0.0" end= "360.0" vehsPerHour="99" type="WN_left" route="WN">
    </flow>
    <flow id="NW0" color="1,1,0"  begin="0.0" end= "360.0" vehsPerHour="100" type="NW_right" route="NW">
    </flow>
    <flow id="EN0" color="1,1,0"  begin="0.0" end= "360.0" vehsPerHour="100" type="EN_right" route="EN">
    </flow>
    <flow id="SE0" color="1,1,0"  begin="0.0" end= "360.0" vehsPerHour="100" type="SE_right" route="SE">
    </flow>
    <flow id="WS0" color="1,1,0"  begin="0.0" end= "360.0" vehsPerHour="100" type="WS_right" route="WS">
    </flow>
    <flow id="NS1" color="1,1,0"  begin="360.0" end= "720.0" vehsPerHour="217" type="NS_through" route="NS">
    </flow>
    <flow id="NE1" color="1,1,0"  begin="360.0" end= "720.0" vehsPerHour="260" type="NE_left" route="NE">
    </flow>
    <flow id="EW1" color="1,1,0"  begin="360.0" end= "720.0" vehsPerHour="272" type="EW_through" route="EW">
    </flow>
    <flow id="ES1" color="1,1,0"  begin="360.0" end= "720.0" vehsPerHour="234" type="ES_left" route="ES">
    </flow>
    <flow id="SN1" color="1,1,0"  begin="360.0" end= "720.0" vehsPerHour="245" type="SN_through" route="SN">
    </flow>
    <flow id="SW1" color="1,1,0"  begin="360.0" end= "720.0" vehsPerHour="202" type="SW_left" route="SW">
    </flow>
    <flow id="WE1" color="1,1,0"  begin="360.0" end= "720.0" vehsPerHour="214" type="WE_through" route="WE">
    </flow>
    <flow id="WN1" color="1,1,0"  begin="360.0" end= "720.0" vehsPerHour="157" type="WN_left" route="WN">
    </flow>
    <flow id="NW1" color="1,1,0"  begin="360.0" end= "720.0" vehsPerHour="100" type="NW_right" route="NW">
    </flow>
    <flow id="EN1" color="1,1,0"  begin="360.0" end= "720.0" vehsPerHour="100" type="EN_right" route="EN">
    </flow>
    <flow id="SE1" color="1,1,0"  begin="360.0" end= "720.0" vehsPerHour="100" type="SE_right" route="SE">
    </flow>
    <flow id="WS1" color="1,1,0"  begin="360.0" end= "720.0" vehsPerHour="100" type="WS_right" route="WS">
    </flow>
    <flow id="NS2" color="1,1,0"  begin="720.0" end= "1080.0" vehsPerHour="256" type="NS_through" route="NS">
    </flow>
    <flow id="NE2" color="1,1,0"  begin="720.0" end= "1080.0" vehsPerHour="434" type="NE_left" route="NE">
    </flow>
    <flow id="EW2" color="1,1,0"  begin="720.0" end= "1080.0" vehsPerHour="266" type="EW_through" route="EW">
    </flow>
    <flow id="ES2" color="1,1,0"  begin="720.0" end= "1080.0" vehsPerHour="426" type="ES_left" route="ES">
    </flow>
    <flow id="SN2" color="1,1,0"  begin="720.0" end= "1080.0" vehsPerHour="321" type="SN_through" route="SN">
    </flow>
    <flow id="SW2" color="1,1,0"  begin="720.0" end= "1080.0" vehsPerHour="330" type="SW_left" route="SW">
    </flow>
    <flow id="WE2" color="1,1,0"  begin="720.0" end= "1080.0" vehsPerHour="275" type="WE_through" route="WE">
    </flow>
    <flow id="WN2" color="1,1,0"  begin="720.0" end= "1080.0" vehsPerHour="269" type="WN_left" route="WN">
    </flow>
    <flow id="NW2" color="1,1,0"  begin="720.0" end= "1080.0" vehsPerHour="100" type="NW_right" route="NW">
    </flow>
    <flow id="EN2" color="1,1,0"  begin="720.0" end= "1080.0" vehsPerHour="100" type="EN_right" route="EN">
    </flow>
    <flow id="SE2" color="1,1,0"  begin="720.0" end= "1080.0" vehsPerHour="100" type="SE_right" route="SE">
    </flow>
    <flow id="WS2" color="1,1,0"  begin="720.0" end= "1080.0" vehsPerHour="100" type="WS_right" route="WS">
    </flow>
    <flow id="NS3" color="1,1,0"  begin="1080.0" end= "1440.0" vehsPerHour="202" type="NS_through" route="NS">
    </flow>
    <flow id="NE3" color="1,1,0"  begin="1080.0" end= "1440.0" vehsPerHour="208" type="NE_left" route="NE">
    </flow>
    <flow id="EW3" color="1,1,0"  begin="1080.0" end= "1440.0" vehsPerHour="199" type="EW_through" route="EW">
    </flow>
    <flow id="ES3" color="1,1,0"  begin="1080.0" end= "1440.0" vehsPerHour="240" type="ES_left" route="ES">
    </flow>
    <flow id="SN3" color="1,1,0"  begin="1080.0" end= "1440.0" vehsPerHour="301" type="SN_through" route="SN">
    </flow>
    <flow id="SW3" color="1,1,0"  begin="1080.0" end= "1440.0" vehsPerHour="247" type="SW_left" route="SW">
    </flow>
    <flow id="WE3" color="1,1,0"  begin="1080.0" end= "1440.0" vehsPerHour="187" type="WE_through" route="WE">
    </flow>
    <flow id="WN3" color="1,1,0"  begin="1080.0" end= "1440.0" vehsPerHour="199" type="WN_left" route="WN">
    </flow>
    <flow id="NW3" color="1,1,0"  begin="1080.0" end= "1440.0" vehsPerHour="100" type="NW_right" route="NW">
    </flow>
    <flow id="EN3" color="1,1,0"  begin="1080.0" end= "1440.0" vehsPerHour="100" type="EN_right" route="EN">
    </flow>
    <flow id="SE3" color="1,1,0"  begin="1080.0" end= "1440.0" vehsPerHour="100" type="SE_right" route="SE">
    </flow>
    <flow id="WS3" color="1,1,0"  begin="1080.0" end= "1440.0" vehsPerHour="100" type="WS_right" route="WS">
    </flow>
    <flow id="NS4" color="1,1,0"  begin="1440.0" end= "1800.0" vehsPerHour="246" type="NS_through" route="NS">
    </flow>
    <flow id="NE4" color="1,1,0"  begin="1440.0" end= "1800.0" vehsPerHour="283" type="NE_left" route="NE">
    </flow>
    <flow id="EW4" color="1,1,0"  begin="1440.0" end= "1800.0" vehsPerHour="187" type="EW_through" route="EW">
    </flow>
    <flow id="ES4" color="1,1,0"  begin="1440.0" end= "1800.0" vehsPerHour="287" type="ES_left" route="ES">
    </flow>
    <flow id="SN4" color="1,1,0"  begin="1440.0" end= "1800.0" vehsPerHour="224" type="SN_through" route="SN">
    </flow>
    <flow id="SW4" color="1,1,0"  begin="1440.0" end= "1800.0" vehsPerHour="257" type="SW_left" route="SW">
    </flow>
    <flow id="WE4" color="1,1,0"  begin="1440.0" end= "1800.0" vehsPerHour="176" type="WE_through" route="WE">
    </flow>
    <flow id="WN4" color="1,1,0"  begin="1440.0" end= "1800.0" vehsPerHour="244" type="WN_left" route="WN">
    </flow>
    <flow id="NW4" color="1,1,0"  begin="1440.0" end= "1800.0" vehsPerHour="100" type="NW_right" route="NW">
    </flow>
    <flow id="EN4" color="1,1,0"  begin="1440.0" end= "1800.0" vehsPerHour="100" type="EN_right" route="EN">
    </flow>
    <flow id="SE4" color="1,1,0"  begin="1440.0" end= "1800.0" vehsPerHour="100" type="SE_right" route="SE">
    </flow>
    <flow id="WS4" color="1,1,0"  begin="1440.0" end= "1800.0" vehsPerHour="100" type="WS_right" route="WS">
    </flow>
    <flow id="NS5" color="1,1,0"  begin="1800.0" end= "2160.0" vehsPerHour="246" type="NS_through" route="NS">
    </flow>
    <flow id="NE5" color="1,1,0"  begin="1800.0" end= "2160.0" vehsPerHour="274" type="NE_left" route="NE">
    </flow>
    <flow id="EW5" color="1,1,0"  begin="1800.0" end= "2160.0" vehsPerHour="382" type="EW_through" route="EW">
    </flow>
    <flow id="ES5" color="1,1,0"  begin="1800.0" end= "2160.0" vehsPerHour="231" type="ES_left" route="ES">
    </flow>
    <flow id="SN5" color="1,1,0"  begin="1800.0" end= "2160.0" vehsPerHour="341" type="SN_through" route="SN">
    </flow>
    <flow id="SW5" color="1,1,0"  begin="1800.0" end= "2160.0" vehsPerHour="365" type="SW_left" route="SW">
    </flow>
    <flow id="WE5" color="1,1,0"  begin="1800.0" end= "2160.0" vehsPerHour="297" type="WE_through" route="WE">
    </flow>
    <flow id="WN5" color="1,1,0"  begin="1800.0" end= "2160.0" vehsPerHour="155" type="WN_left" route="WN">
    </flow>
    <flow id="NW5" color="1,1,0"  begin="1800.0" end= "2160.0" vehsPerHour="100" type="NW_right" route="NW">
    </flow>
    <flow id="EN5" color="1,1,0"  begin="1800.0" end= "2160.0" vehsPerHour="100" type="EN_right" route="EN">
    </flow>
    <flow id="SE5" color="1,1,0"  begin="1800.0" end= "2160.0" vehsPerHour="100" type="SE_right" route="SE">
    </flow>
    <flow id="WS5" color="1,1,0"  begin="1800.0" end= "2160.0" vehsPerHour="100" type="WS_right" route="WS">
    </flow>
    <flow id="NS6" color="1,1,0"  begin="2160.0" end= "2520.0" vehsPerHour="326" type="NS_through" route="NS">
    </flow>
    <flow id="NE6" color="1,1,0"  begin="2160.0" end= "2520.0" vehsPerHour="294" type="NE_left" route="NE">
    </flow>
    <flow id="EW6" color="1,1,0"  begin="2160.0" end= "2520.0" vehsPerHour="267" type="EW_through" route="EW">
    </flow>
    <flow id="ES6" color="1,1,0"  begin="2160.0" end= "2520.0" vehsPerHour="375" type="ES_left" route="ES">
    </flow>
    <flow id="SN6" color="1,1,0"  begin="2160.0" end= "2520.0" vehsPerHour="235" type="SN_through" route="SN">
    </flow>
    <flow id="SW6" color="1,1,0"  begin="2160.0" end= "2520.0" vehsPerHour="267" type="SW_left" route="SW">
    </flow>
    <flow id="WE6" color="1,1,0"  begin="2160.0" end= "2520.0" vehsPerHour="293" type="WE_through" route="WE">
    </flow>
    <flow id="WN6" color="1,1,0"  begin="2160.0" end= "2520.0" vehsPerHour="295" type="WN_left" route="WN">
    </flow>
    <flow id="NW6" color="1,1,0"  begin="2160.0" end= "2520.0" vehsPerHour="100" type="NW_right" route="NW">
    </flow>
    <flow id="EN6" color="1,1,0"  begin="2160.0" end= "2520.0" vehsPerHour="100" type="EN_right" route="EN">
    </flow>
    <flow id="SE6" color="1,1,0"  begin="2160.0" end= "2520.0" vehsPerHour="100" type="SE_right" route="SE">
    </flow>
    <flow id="WS6" color="1,1,0"  begin="2160.0" end= "2520.0" vehsPerHour="100" type="WS_right" route="WS">
    </flow>
    <flow id="NS7" color="1,1,0"  begin="2520.0" end= "2880.0" vehsPerHour="275" type="NS_through" route="NS">
    </flow>
    <flow id="NE7" color="1,1,0"  begin="2520.0" end= "2880.0" vehsPerHour="207" type="NE_left" route="NE">
    </flow>
    <flow id="EW7" color="1,1,0"  begin="2520.0" end= "2880.0" vehsPerHour="294" type="EW_through" route="EW">
    </flow>
    <flow id="ES7" color="1,1,0"  begin="2520.0" end= "2880.0" vehsPerHour="250" type="ES_left" route="ES">
    </flow>
    <flow id="SN7" color="1,1,0"  begin="2520.0" end= "2880.0" vehsPerHour="210" type="SN_through" route="SN">
    </flow>
    <flow id="SW7" color="1,1,0"  begin="2520.0" end= "2880.0" vehsPerHour="302" type="SW_left" route="SW">
    </flow>
    <flow id="WE7" color="1,1,0"  begin="2520.0" end= "2880.0" vehsPerHour="250" type="WE_through" route="WE">
    </flow>
    <flow id="WN7" color="1,1,0"  begin="2520.0" end= "2880.0" vehsPerHour="227" type="WN_left" route="WN">
    </flow>
    <flow id="NW7" color="1,1,0"  begin="2520.0" end= "2880.0" vehsPerHour="100" type="NW_right" route="NW">
    </flow>
    <flow id="EN7" color="1,1,0"  begin="2520.0" end= "2880.0" vehsPerHour="100" type="EN_right" route="EN">
    </flow>
    <flow id="SE7" color="1,1,0"  begin="2520.0" end= "2880.0" vehsPerHour="100" type="SE_right" route="SE">
    </flow>
    <flow id="WS7" color="1,1,0"  begin="2520.0" end= "2880.0" vehsPerHour="100" type="WS_right" route="WS">
    </flow>
    <flow id="NS8" color="1,1,0"  begin="2880.0" end= "3240.0" vehsPerHour="86" type="NS_through" route="NS">
    </flow>
    <flow id="NE8" color="1,1,0"  begin="2880.0" end= "3240.0" vehsPerHour="219" type="NE_left" route="NE">
    </flow>
    <flow id="EW8" color="1,1,0"  begin="2880.0" end= "3240.0" vehsPerHour="150" type="EW_through" route="EW">
    </flow>
    <flow id="ES8" color="1,1,0"  begin="2880.0" end= "3240.0" vehsPerHour="98" type="ES_left" route="ES">
    </flow>
    <flow id="SN8" color="1,1,0"  begin="2880.0" end= "3240.0" vehsPerHour="233" type="SN_through" route="SN">
    </flow>
    <flow id="SW8" color="1,1,0"  begin="2880.0" end= "3240.0" vehsPerHour="216" type="SW_left" route="SW">
    </flow>
    <flow id="WE8" color="1,1,0"  begin="2880.0" end= "3240.0" vehsPerHour="199" type="WE_through" route="WE">
    </flow>
    <flow id="WN8" color="1,1,0"  begin="2880.0" end= "3240.0" vehsPerHour="68" type="WN_left" route="WN">
    </flow>
    <flow id="NW8" color="1,1,0"  begin="2880.0" end= "3240.0" vehsPerHour="100" type="NW_right" route="NW">
    </flow>
    <flow id="EN8" color="1,1,0"  begin="2880.0" end= "3240.0" vehsPerHour="100" type="EN_right" route="EN">
    </flow>
    <flow id="SE8" color="1,1,0"  begin="2880.0" end= "3240.0" vehsPerHour="100" type="SE_right" route="SE">
    </flow>
    <flow id="WS8" color="1,1,0"  begin="2880.0" end= "3240.0" vehsPerHour="100" type="WS_right" route="WS">
    </flow>
    <flow id="NS9" color="1,1,0"  begin="3240.0" end= "3600.0" vehsPerHour="59" type="NS_through" route="NS">
    </flow>
    <flow id="NE9" color="1,1,0"  begin="3240.0" end= "3600.0" vehsPerHour="134" type="NE_left" route="NE">
    </flow>
    <flow id="EW9" color="1,1,0"  begin="3240.0" end= "3600.0" vehsPerHour="155" type="EW_through" route="EW">
    </flow>
    <flow id="ES9" color="1,1,0"  begin="3240.0" end= "3600.0" vehsPerHour="113" type="ES_left" route="ES">
    </flow>
    <flow id="SN9" color="1,1,0"  begin="3240.0" end= "3600.0" vehsPerHour="105" type="SN_through" route="SN">
    </flow>
    <flow id="SW9" color="1,1,0"  begin="3240.0" end= "3600.0" vehsPerHour="241" type="SW_left" route="SW">
    </flow>
    <flow id="WE9" color="1,1,0"  begin="3240.0" end= "3600.0" vehsPerHour="134" type="WE_through" route="WE">
    </flow>
    <flow id="WN9" color="1,1,0"  begin="3240.0" end= "3600.0" vehsPerHour="137" type="WN_left" route="WN">
    </flow>
    <flow id="NW9" color="1,1,0"  begin="3240.0" end= "3600.0" vehsPerHour="100" type="NW_right" route="NW">
    </flow>
    <flow id="EN9" color="1,1,0"  begin="3240.0" end= "3600.0" vehsPerHour="100" type="EN_right" route="EN">
    </flow>
    <flow id="SE9" color="1,1,0"  begin="3240.0" end= "3600.0" vehsPerHour="100" type="SE_right" route="SE">
    </flow>
    <flow id="WS9" color="1,1,0"  begin="3240.0" end= "3600.0" vehsPerHour="100" type="WS_right" route="WS">
    </flow>
</routes>
