<?xml version="1.0" encoding="UTF-8"?>

<!-- generated on 2023-07-14 20:42:28 by Eclipse SUMO netedit Version 1.17.0
<configuration xmlns:xsi="http://www.w3.org/2001/XMLSchema-instance" xsi:noNamespaceSchemaLocation="http://sumo.dlr.de/xsd/netconvertConfiguration.xsd">

    <input>
        <sumo-net-file value="E:\论文代码\多交叉口强化学习\nets\4_4\net_convention.net.xml"/>
    </input>

    <output>
        <output-file value="E:\论文代码\多交叉口强化学习\nets\4_4\net_convention.net.xml"/>
    </output>

    <processing>
        <geometry.min-radius.fix.railways value="false"/>
        <geometry.max-grade.fix value="false"/>
        <offset.disable-normalization value="true"/>
        <lefthand value="0"/>
    </processing>

    <junctions>
        <no-turnarounds value="true"/>
        <junctions.corner-detail value="5"/>
        <junctions.limit-turn-speed value="5.50"/>
        <rectangular-lane-cut value="0"/>
    </junctions>

    <pedestrian>
        <walkingareas value="0"/>
    </pedestrian>

</configuration>
-->

<net version="1.16" junctionCornerDetail="5" limitTurnSpeed="5.50" xmlns:xsi="http://www.w3.org/2001/XMLSchema-instance" xsi:noNamespaceSchemaLocation="http://sumo.dlr.de/xsd/net_file.xsd">

    <location netOffset="800.00,600.00" convBoundary="1000.00,700.00,2500.00,2700.00" origBoundary="-800.00,-600.00,3200.00,2400.00" projParameter="!"/>

    <edge id=":intersection_0_1_0" function="internal">
        <lane id=":intersection_0_1_0_0" index="0" speed="3.65" length="4.67" shape="1000.00,1501.60 998.80,1500.80 998.40,1500.00 998.80,1499.20 1000.00,1498.40"/>
    </edge>
    <edge id=":intersection_0_2_0" function="internal">
        <lane id=":intersection_0_2_0_0" index="0" speed="3.65" length="4.67" shape="1000.00,1801.60 998.80,1800.80 998.40,1800.00 998.80,1799.20 1000.00,1798.40"/>
    </edge>
    <edge id=":intersection_0_3_0" function="internal">
        <lane id=":intersection_0_3_0_0" index="0" speed="3.65" length="4.67" shape="1000.00,2101.60 998.80,2100.80 998.40,2100.00 998.80,2099.20 1000.00,2098.40"/>
    </edge>
    <edge id=":intersection_0_4_0" function="internal">
        <lane id=":intersection_0_4_0_0" index="0" speed="3.65" length="4.67" shape="1000.00,2401.60 998.80,2400.80 998.40,2400.00 998.80,2399.20 1000.00,2398.40"/>
    </edge>
    <edge id=":intersection_1_0_0" function="internal">
        <lane id=":intersection_1_0_0_0" index="0" speed="3.65" length="4.67" shape="1298.40,1200.00 1299.20,1198.80 1300.00,1198.40 1300.80,1198.80 1301.60,1200.00"/>
    </edge>
    <edge id=":intersection_1_1_0" function="internal">
        <lane id=":intersection_1_1_0_0" index="0" speed="6.51" length="9.03" shape="1292.00,1513.60 1291.65,1511.15 1290.60,1509.40 1288.85,1508.35 1286.40,1508.00"/>
        <lane id=":intersection_1_1_0_1" index="1" speed="7.33" length="11.73" shape="1292.00,1513.60 1291.65,1509.75 1290.60,1507.00 1288.85,1505.35 1286.40,1504.80"/>
        <lane id=":intersection_1_1_0_2" index="2" speed="8.10" length="14.57" shape="1292.00,1513.60 1291.65,1508.35 1290.60,1504.60 1288.85,1502.35 1286.40,1501.60"/>
    </edge>
    <edge id=":intersection_1_1_3" function="internal">
        <lane id=":intersection_1_1_3_0" index="0" speed="11.11" length="27.37" shape="1295.20,1513.60 1294.70,1505.50 1293.60,1500.00 1292.50,1494.50 1292.00,1486.40"/>
        <lane id=":intersection_1_1_3_1" index="1" speed="11.11" length="27.37" shape="1295.20,1513.60 1295.20,1486.40"/>
        <lane id=":intersection_1_1_3_2" index="2" speed="11.11" length="27.37" shape="1295.20,1513.60 1295.70,1505.50 1296.80,1500.00 1297.90,1494.50 1298.40,1486.40"/>
    </edge>
    <edge id=":intersection_1_1_6" function="internal">
        <lane id=":intersection_1_1_6_0" index="0" speed="11.11" length="29.85" shape="1298.40,1513.60 1299.35,1504.15 1302.20,1497.40 1306.95,1493.35 1313.60,1492.00"/>
        <lane id=":intersection_1_1_6_1" index="1" speed="10.88" length="27.14" shape="1298.40,1513.60 1299.35,1505.55 1302.20,1499.80 1306.95,1496.35 1313.60,1495.20"/>
        <lane id=":intersection_1_1_6_2" index="2" speed="10.36" length="24.51" shape="1298.40,1513.60 1299.35,1506.95 1302.20,1502.20 1306.95,1499.35 1313.60,1498.40"/>
    </edge>
    <edge id=":intersection_1_1_9" function="internal">
        <lane id=":intersection_1_1_9_0" index="0" speed="6.51" length="9.03" shape="1313.60,1508.00 1311.15,1508.35 1309.40,1509.40 1308.35,1511.15 1308.00,1513.60"/>
        <lane id=":intersection_1_1_9_1" index="1" speed="7.33" length="11.73" shape="1313.60,1508.00 1309.75,1508.35 1307.00,1509.40 1305.35,1511.15 1304.80,1513.60"/>
        <lane id=":intersection_1_1_9_2" index="2" speed="8.10" length="14.57" shape="1313.60,1508.00 1308.35,1508.35 1304.60,1509.40 1302.35,1511.15 1301.60,1513.60"/>
    </edge>
    <edge id=":intersection_1_1_12" function="internal">
        <lane id=":intersection_1_1_12_0" index="0" speed="11.11" length="27.37" shape="1313.60,1504.80 1305.50,1505.30 1300.00,1506.40 1294.50,1507.50 1286.40,1508.00"/>
        <lane id=":intersection_1_1_12_1" index="1" speed="11.11" length="27.37" shape="1313.60,1504.80 1286.40,1504.80"/>
        <lane id=":intersection_1_1_12_2" index="2" speed="11.11" length="27.37" shape="1313.60,1504.80 1305.50,1504.30 1300.00,1503.20 1294.50,1502.10 1286.40,1501.60"/>
    </edge>
    <edge id=":intersection_1_1_15" function="internal">
        <lane id=":intersection_1_1_15_0" index="0" speed="11.11" length="29.85" shape="1313.60,1501.60 1304.15,1500.65 1297.40,1497.80 1293.35,1493.05 1292.00,1486.40"/>
        <lane id=":intersection_1_1_15_1" index="1" speed="10.88" length="27.14" shape="1313.60,1501.60 1305.55,1500.65 1299.80,1497.80 1296.35,1493.05 1295.20,1486.40"/>
        <lane id=":intersection_1_1_15_2" index="2" speed="10.36" length="24.51" shape="1313.60,1501.60 1306.95,1500.65 1302.20,1497.80 1299.35,1493.05 1298.40,1486.40"/>
    </edge>
    <edge id=":intersection_1_1_18" function="internal">
        <lane id=":intersection_1_1_18_0" index="0" speed="6.51" length="9.03" shape="1308.00,1486.40 1308.35,1488.85 1309.40,1490.60 1311.15,1491.65 1313.60,1492.00"/>
        <lane id=":intersection_1_1_18_1" index="1" speed="7.33" length="11.73" shape="1308.00,1486.40 1308.35,1490.25 1309.40,1493.00 1311.15,1494.65 1313.60,1495.20"/>
        <lane id=":intersection_1_1_18_2" index="2" speed="8.10" length="14.57" shape="1308.00,1486.40 1308.35,1491.65 1309.40,1495.40 1311.15,1497.65 1313.60,1498.40"/>
    </edge>
    <edge id=":intersection_1_1_21" function="internal">
        <lane id=":intersection_1_1_21_0" index="0" speed="11.11" length="27.37" shape="1304.80,1486.40 1305.30,1494.50 1306.40,1500.00 1307.50,1505.50 1308.00,1513.60"/>
        <lane id=":intersection_1_1_21_1" index="1" speed="11.11" length="27.37" shape="1304.80,1486.40 1304.80,1513.60"/>
        <lane id=":intersection_1_1_21_2" index="2" speed="11.11" length="27.37" shape="1304.80,1486.40 1304.30,1494.50 1303.20,1500.00 1302.10,1505.50 1301.60,1513.60"/>
    </edge>
    <edge id=":intersection_1_1_24" function="internal">
        <lane id=":intersection_1_1_24_0" index="0" speed="11.11" length="29.85" shape="1301.60,1486.40 1300.65,1495.85 1297.80,1502.60 1293.05,1506.65 1286.40,1508.00"/>
        <lane id=":intersection_1_1_24_1" index="1" speed="10.88" length="27.14" shape="1301.60,1486.40 1300.65,1494.45 1297.80,1500.20 1293.05,1503.65 1286.40,1504.80"/>
        <lane id=":intersection_1_1_24_2" index="2" speed="10.36" length="24.51" shape="1301.60,1486.40 1300.65,1493.05 1297.80,1497.80 1293.05,1500.65 1286.40,1501.60"/>
    </edge>
    <edge id=":intersection_1_1_27" function="internal">
        <lane id=":intersection_1_1_27_0" index="0" speed="6.51" length="9.03" shape="1286.40,1492.00 1288.85,1491.65 1290.60,1490.60 1291.65,1488.85 1292.00,1486.40"/>
        <lane id=":intersection_1_1_27_1" index="1" speed="7.33" length="11.73" shape="1286.40,1492.00 1290.25,1491.65 1293.00,1490.60 1294.65,1488.85 1295.20,1486.40"/>
        <lane id=":intersection_1_1_27_2" index="2" speed="8.10" length="14.57" shape="1286.40,1492.00 1291.65,1491.65 1295.40,1490.60 1297.65,1488.85 1298.40,1486.40"/>
    </edge>
    <edge id=":intersection_1_1_30" function="internal">
        <lane id=":intersection_1_1_30_0" index="0" speed="11.11" length="27.37" shape="1286.40,1495.20 1294.50,1494.70 1300.00,1493.60 1305.50,1492.50 1313.60,1492.00"/>
        <lane id=":intersection_1_1_30_1" index="1" speed="11.11" length="27.37" shape="1286.40,1495.20 1313.60,1495.20"/>
        <lane id=":intersection_1_1_30_2" index="2" speed="11.11" length="27.37" shape="1286.40,1495.20 1294.50,1495.70 1300.00,1496.80 1305.50,1497.90 1313.60,1498.40"/>
    </edge>
    <edge id=":intersection_1_1_33" function="internal">
        <lane id=":intersection_1_1_33_0" index="0" speed="11.11" length="29.85" shape="1286.40,1498.40 1295.85,1499.35 1302.60,1502.20 1306.65,1506.95 1308.00,1513.60"/>
        <lane id=":intersection_1_1_33_1" index="1" speed="10.88" length="27.14" shape="1286.40,1498.40 1294.45,1499.35 1300.20,1502.20 1303.65,1506.95 1304.80,1513.60"/>
        <lane id=":intersection_1_1_33_2" index="2" speed="10.36" length="24.51" shape="1286.40,1498.40 1293.05,1499.35 1297.80,1502.20 1300.65,1506.95 1301.60,1513.60"/>
    </edge>
    <edge id=":intersection_1_2_0" function="internal">
        <lane id=":intersection_1_2_0_0" index="0" speed="6.51" length="9.03" shape="1292.00,1813.60 1291.65,1811.15 1290.60,1809.40 1288.85,1808.35 1286.40,1808.00"/>
        <lane id=":intersection_1_2_0_1" index="1" speed="7.33" length="11.73" shape="1292.00,1813.60 1291.65,1809.75 1290.60,1807.00 1288.85,1805.35 1286.40,1804.80"/>
        <lane id=":intersection_1_2_0_2" index="2" speed="8.10" length="14.57" shape="1292.00,1813.60 1291.65,1808.35 1290.60,1804.60 1288.85,1802.35 1286.40,1801.60"/>
    </edge>
    <edge id=":intersection_1_2_3" function="internal">
        <lane id=":intersection_1_2_3_0" index="0" speed="11.11" length="27.37" shape="1295.20,1813.60 1294.70,1805.50 1293.60,1800.00 1292.50,1794.50 1292.00,1786.40"/>
        <lane id=":intersection_1_2_3_1" index="1" speed="11.11" length="27.37" shape="1295.20,1813.60 1295.20,1786.40"/>
        <lane id=":intersection_1_2_3_2" index="2" speed="11.11" length="27.37" shape="1295.20,1813.60 1295.70,1805.50 1296.80,1800.00 1297.90,1794.50 1298.40,1786.40"/>
    </edge>
    <edge id=":intersection_1_2_6" function="internal">
        <lane id=":intersection_1_2_6_0" index="0" speed="11.11" length="29.85" shape="1298.40,1813.60 1299.35,1804.15 1302.20,1797.40 1306.95,1793.35 1313.60,1792.00"/>
        <lane id=":intersection_1_2_6_1" index="1" speed="10.88" length="27.14" shape="1298.40,1813.60 1299.35,1805.55 1302.20,1799.80 1306.95,1796.35 1313.60,1795.20"/>
        <lane id=":intersection_1_2_6_2" index="2" speed="10.36" length="24.51" shape="1298.40,1813.60 1299.35,1806.95 1302.20,1802.20 1306.95,1799.35 1313.60,1798.40"/>
    </edge>
    <edge id=":intersection_1_2_9" function="internal">
        <lane id=":intersection_1_2_9_0" index="0" speed="6.51" length="9.03" shape="1313.60,1808.00 1311.15,1808.35 1309.40,1809.40 1308.35,1811.15 1308.00,1813.60"/>
        <lane id=":intersection_1_2_9_1" index="1" speed="7.33" length="11.73" shape="1313.60,1808.00 1309.75,1808.35 1307.00,1809.40 1305.35,1811.15 1304.80,1813.60"/>
        <lane id=":intersection_1_2_9_2" index="2" speed="8.10" length="14.57" shape="1313.60,1808.00 1308.35,1808.35 1304.60,1809.40 1302.35,1811.15 1301.60,1813.60"/>
    </edge>
    <edge id=":intersection_1_2_12" function="internal">
        <lane id=":intersection_1_2_12_0" index="0" speed="11.11" length="27.37" shape="1313.60,1804.80 1305.50,1805.30 1300.00,1806.40 1294.50,1807.50 1286.40,1808.00"/>
        <lane id=":intersection_1_2_12_1" index="1" speed="11.11" length="27.37" shape="1313.60,1804.80 1286.40,1804.80"/>
        <lane id=":intersection_1_2_12_2" index="2" speed="11.11" length="27.37" shape="1313.60,1804.80 1305.50,1804.30 1300.00,1803.20 1294.50,1802.10 1286.40,1801.60"/>
    </edge>
    <edge id=":intersection_1_2_15" function="internal">
        <lane id=":intersection_1_2_15_0" index="0" speed="11.11" length="29.85" shape="1313.60,1801.60 1304.15,1800.65 1297.40,1797.80 1293.35,1793.05 1292.00,1786.40"/>
        <lane id=":intersection_1_2_15_1" index="1" speed="10.88" length="27.14" shape="1313.60,1801.60 1305.55,1800.65 1299.80,1797.80 1296.35,1793.05 1295.20,1786.40"/>
        <lane id=":intersection_1_2_15_2" index="2" speed="10.36" length="24.51" shape="1313.60,1801.60 1306.95,1800.65 1302.20,1797.80 1299.35,1793.05 1298.40,1786.40"/>
    </edge>
    <edge id=":intersection_1_2_18" function="internal">
        <lane id=":intersection_1_2_18_0" index="0" speed="6.51" length="9.03" shape="1308.00,1786.40 1308.35,1788.85 1309.40,1790.60 1311.15,1791.65 1313.60,1792.00"/>
        <lane id=":intersection_1_2_18_1" index="1" speed="7.33" length="11.73" shape="1308.00,1786.40 1308.35,1790.25 1309.40,1793.00 1311.15,1794.65 1313.60,1795.20"/>
        <lane id=":intersection_1_2_18_2" index="2" speed="8.10" length="14.57" shape="1308.00,1786.40 1308.35,1791.65 1309.40,1795.40 1311.15,1797.65 1313.60,1798.40"/>
    </edge>
    <edge id=":intersection_1_2_21" function="internal">
        <lane id=":intersection_1_2_21_0" index="0" speed="11.11" length="27.37" shape="1304.80,1786.40 1305.30,1794.50 1306.40,1800.00 1307.50,1805.50 1308.00,1813.60"/>
        <lane id=":intersection_1_2_21_1" index="1" speed="11.11" length="27.37" shape="1304.80,1786.40 1304.80,1813.60"/>
        <lane id=":intersection_1_2_21_2" index="2" speed="11.11" length="27.37" shape="1304.80,1786.40 1304.30,1794.50 1303.20,1800.00 1302.10,1805.50 1301.60,1813.60"/>
    </edge>
    <edge id=":intersection_1_2_24" function="internal">
        <lane id=":intersection_1_2_24_0" index="0" speed="11.11" length="29.85" shape="1301.60,1786.40 1300.65,1795.85 1297.80,1802.60 1293.05,1806.65 1286.40,1808.00"/>
        <lane id=":intersection_1_2_24_1" index="1" speed="10.88" length="27.14" shape="1301.60,1786.40 1300.65,1794.45 1297.80,1800.20 1293.05,1803.65 1286.40,1804.80"/>
        <lane id=":intersection_1_2_24_2" index="2" speed="10.36" length="24.51" shape="1301.60,1786.40 1300.65,1793.05 1297.80,1797.80 1293.05,1800.65 1286.40,1801.60"/>
    </edge>
    <edge id=":intersection_1_2_27" function="internal">
        <lane id=":intersection_1_2_27_0" index="0" speed="6.51" length="9.03" shape="1286.40,1792.00 1288.85,1791.65 1290.60,1790.60 1291.65,1788.85 1292.00,1786.40"/>
        <lane id=":intersection_1_2_27_1" index="1" speed="7.33" length="11.73" shape="1286.40,1792.00 1290.25,1791.65 1293.00,1790.60 1294.65,1788.85 1295.20,1786.40"/>
        <lane id=":intersection_1_2_27_2" index="2" speed="8.10" length="14.57" shape="1286.40,1792.00 1291.65,1791.65 1295.40,1790.60 1297.65,1788.85 1298.40,1786.40"/>
    </edge>
    <edge id=":intersection_1_2_30" function="internal">
        <lane id=":intersection_1_2_30_0" index="0" speed="11.11" length="27.37" shape="1286.40,1795.20 1294.50,1794.70 1300.00,1793.60 1305.50,1792.50 1313.60,1792.00"/>
        <lane id=":intersection_1_2_30_1" index="1" speed="11.11" length="27.37" shape="1286.40,1795.20 1313.60,1795.20"/>
        <lane id=":intersection_1_2_30_2" index="2" speed="11.11" length="27.37" shape="1286.40,1795.20 1294.50,1795.70 1300.00,1796.80 1305.50,1797.90 1313.60,1798.40"/>
    </edge>
    <edge id=":intersection_1_2_33" function="internal">
        <lane id=":intersection_1_2_33_0" index="0" speed="11.11" length="29.85" shape="1286.40,1798.40 1295.85,1799.35 1302.60,1802.20 1306.65,1806.95 1308.00,1813.60"/>
        <lane id=":intersection_1_2_33_1" index="1" speed="10.88" length="27.14" shape="1286.40,1798.40 1294.45,1799.35 1300.20,1802.20 1303.65,1806.95 1304.80,1813.60"/>
        <lane id=":intersection_1_2_33_2" index="2" speed="10.36" length="24.51" shape="1286.40,1798.40 1293.05,1799.35 1297.80,1802.20 1300.65,1806.95 1301.60,1813.60"/>
    </edge>
    <edge id=":intersection_1_3_0" function="internal">
        <lane id=":intersection_1_3_0_0" index="0" speed="6.51" length="9.03" shape="1292.00,2113.60 1291.65,2111.15 1290.60,2109.40 1288.85,2108.35 1286.40,2108.00"/>
        <lane id=":intersection_1_3_0_1" index="1" speed="7.33" length="11.73" shape="1292.00,2113.60 1291.65,2109.75 1290.60,2107.00 1288.85,2105.35 1286.40,2104.80"/>
        <lane id=":intersection_1_3_0_2" index="2" speed="8.10" length="14.57" shape="1292.00,2113.60 1291.65,2108.35 1290.60,2104.60 1288.85,2102.35 1286.40,2101.60"/>
    </edge>
    <edge id=":intersection_1_3_3" function="internal">
        <lane id=":intersection_1_3_3_0" index="0" speed="11.11" length="27.37" shape="1295.20,2113.60 1294.70,2105.50 1293.60,2100.00 1292.50,2094.50 1292.00,2086.40"/>
        <lane id=":intersection_1_3_3_1" index="1" speed="11.11" length="27.37" shape="1295.20,2113.60 1295.20,2086.40"/>
        <lane id=":intersection_1_3_3_2" index="2" speed="11.11" length="27.37" shape="1295.20,2113.60 1295.70,2105.50 1296.80,2100.00 1297.90,2094.50 1298.40,2086.40"/>
    </edge>
    <edge id=":intersection_1_3_6" function="internal">
        <lane id=":intersection_1_3_6_0" index="0" speed="11.11" length="29.85" shape="1298.40,2113.60 1299.35,2104.15 1302.20,2097.40 1306.95,2093.35 1313.60,2092.00"/>
        <lane id=":intersection_1_3_6_1" index="1" speed="10.88" length="27.14" shape="1298.40,2113.60 1299.35,2105.55 1302.20,2099.80 1306.95,2096.35 1313.60,2095.20"/>
        <lane id=":intersection_1_3_6_2" index="2" speed="10.36" length="24.51" shape="1298.40,2113.60 1299.35,2106.95 1302.20,2102.20 1306.95,2099.35 1313.60,2098.40"/>
    </edge>
    <edge id=":intersection_1_3_9" function="internal">
        <lane id=":intersection_1_3_9_0" index="0" speed="6.51" length="9.03" shape="1313.60,2108.00 1311.15,2108.35 1309.40,2109.40 1308.35,2111.15 1308.00,2113.60"/>
        <lane id=":intersection_1_3_9_1" index="1" speed="7.33" length="11.73" shape="1313.60,2108.00 1309.75,2108.35 1307.00,2109.40 1305.35,2111.15 1304.80,2113.60"/>
        <lane id=":intersection_1_3_9_2" index="2" speed="8.10" length="14.57" shape="1313.60,2108.00 1308.35,2108.35 1304.60,2109.40 1302.35,2111.15 1301.60,2113.60"/>
    </edge>
    <edge id=":intersection_1_3_12" function="internal">
        <lane id=":intersection_1_3_12_0" index="0" speed="11.11" length="27.37" shape="1313.60,2104.80 1305.50,2105.30 1300.00,2106.40 1294.50,2107.50 1286.40,2108.00"/>
        <lane id=":intersection_1_3_12_1" index="1" speed="11.11" length="27.37" shape="1313.60,2104.80 1286.40,2104.80"/>
        <lane id=":intersection_1_3_12_2" index="2" speed="11.11" length="27.37" shape="1313.60,2104.80 1305.50,2104.30 1300.00,2103.20 1294.50,2102.10 1286.40,2101.60"/>
    </edge>
    <edge id=":intersection_1_3_15" function="internal">
        <lane id=":intersection_1_3_15_0" index="0" speed="11.11" length="29.85" shape="1313.60,2101.60 1304.15,2100.65 1297.40,2097.80 1293.35,2093.05 1292.00,2086.40"/>
        <lane id=":intersection_1_3_15_1" index="1" speed="10.88" length="27.14" shape="1313.60,2101.60 1305.55,2100.65 1299.80,2097.80 1296.35,2093.05 1295.20,2086.40"/>
        <lane id=":intersection_1_3_15_2" index="2" speed="10.36" length="24.51" shape="1313.60,2101.60 1306.95,2100.65 1302.20,2097.80 1299.35,2093.05 1298.40,2086.40"/>
    </edge>
    <edge id=":intersection_1_3_18" function="internal">
        <lane id=":intersection_1_3_18_0" index="0" speed="6.51" length="9.03" shape="1308.00,2086.40 1308.35,2088.85 1309.40,2090.60 1311.15,2091.65 1313.60,2092.00"/>
        <lane id=":intersection_1_3_18_1" index="1" speed="7.33" length="11.73" shape="1308.00,2086.40 1308.35,2090.25 1309.40,2093.00 1311.15,2094.65 1313.60,2095.20"/>
        <lane id=":intersection_1_3_18_2" index="2" speed="8.10" length="14.57" shape="1308.00,2086.40 1308.35,2091.65 1309.40,2095.40 1311.15,2097.65 1313.60,2098.40"/>
    </edge>
    <edge id=":intersection_1_3_21" function="internal">
        <lane id=":intersection_1_3_21_0" index="0" speed="11.11" length="27.37" shape="1304.80,2086.40 1305.30,2094.50 1306.40,2100.00 1307.50,2105.50 1308.00,2113.60"/>
        <lane id=":intersection_1_3_21_1" index="1" speed="11.11" length="27.37" shape="1304.80,2086.40 1304.80,2113.60"/>
        <lane id=":intersection_1_3_21_2" index="2" speed="11.11" length="27.37" shape="1304.80,2086.40 1304.30,2094.50 1303.20,2100.00 1302.10,2105.50 1301.60,2113.60"/>
    </edge>
    <edge id=":intersection_1_3_24" function="internal">
        <lane id=":intersection_1_3_24_0" index="0" speed="11.11" length="29.85" shape="1301.60,2086.40 1300.65,2095.85 1297.80,2102.60 1293.05,2106.65 1286.40,2108.00"/>
        <lane id=":intersection_1_3_24_1" index="1" speed="10.88" length="27.14" shape="1301.60,2086.40 1300.65,2094.45 1297.80,2100.20 1293.05,2103.65 1286.40,2104.80"/>
        <lane id=":intersection_1_3_24_2" index="2" speed="10.36" length="24.51" shape="1301.60,2086.40 1300.65,2093.05 1297.80,2097.80 1293.05,2100.65 1286.40,2101.60"/>
    </edge>
    <edge id=":intersection_1_3_27" function="internal">
        <lane id=":intersection_1_3_27_0" index="0" speed="6.51" length="9.03" shape="1286.40,2092.00 1288.85,2091.65 1290.60,2090.60 1291.65,2088.85 1292.00,2086.40"/>
        <lane id=":intersection_1_3_27_1" index="1" speed="7.33" length="11.73" shape="1286.40,2092.00 1290.25,2091.65 1293.00,2090.60 1294.65,2088.85 1295.20,2086.40"/>
        <lane id=":intersection_1_3_27_2" index="2" speed="8.10" length="14.57" shape="1286.40,2092.00 1291.65,2091.65 1295.40,2090.60 1297.65,2088.85 1298.40,2086.40"/>
    </edge>
    <edge id=":intersection_1_3_30" function="internal">
        <lane id=":intersection_1_3_30_0" index="0" speed="11.11" length="27.37" shape="1286.40,2095.20 1294.50,2094.70 1300.00,2093.60 1305.50,2092.50 1313.60,2092.00"/>
        <lane id=":intersection_1_3_30_1" index="1" speed="11.11" length="27.37" shape="1286.40,2095.20 1313.60,2095.20"/>
        <lane id=":intersection_1_3_30_2" index="2" speed="11.11" length="27.37" shape="1286.40,2095.20 1294.50,2095.70 1300.00,2096.80 1305.50,2097.90 1313.60,2098.40"/>
    </edge>
    <edge id=":intersection_1_3_33" function="internal">
        <lane id=":intersection_1_3_33_0" index="0" speed="11.11" length="29.85" shape="1286.40,2098.40 1295.85,2099.35 1302.60,2102.20 1306.65,2106.95 1308.00,2113.60"/>
        <lane id=":intersection_1_3_33_1" index="1" speed="10.88" length="27.14" shape="1286.40,2098.40 1294.45,2099.35 1300.20,2102.20 1303.65,2106.95 1304.80,2113.60"/>
        <lane id=":intersection_1_3_33_2" index="2" speed="10.36" length="24.51" shape="1286.40,2098.40 1293.05,2099.35 1297.80,2102.20 1300.65,2106.95 1301.60,2113.60"/>
    </edge>
    <edge id=":intersection_1_4_0" function="internal">
        <lane id=":intersection_1_4_0_0" index="0" speed="6.51" length="9.03" shape="1292.00,2413.60 1291.65,2411.15 1290.60,2409.40 1288.85,2408.35 1286.40,2408.00"/>
        <lane id=":intersection_1_4_0_1" index="1" speed="7.33" length="11.73" shape="1292.00,2413.60 1291.65,2409.75 1290.60,2407.00 1288.85,2405.35 1286.40,2404.80"/>
        <lane id=":intersection_1_4_0_2" index="2" speed="8.10" length="14.57" shape="1292.00,2413.60 1291.65,2408.35 1290.60,2404.60 1288.85,2402.35 1286.40,2401.60"/>
    </edge>
    <edge id=":intersection_1_4_3" function="internal">
        <lane id=":intersection_1_4_3_0" index="0" speed="11.11" length="27.37" shape="1295.20,2413.60 1294.70,2405.50 1293.60,2400.00 1292.50,2394.50 1292.00,2386.40"/>
        <lane id=":intersection_1_4_3_1" index="1" speed="11.11" length="27.37" shape="1295.20,2413.60 1295.20,2386.40"/>
        <lane id=":intersection_1_4_3_2" index="2" speed="11.11" length="27.37" shape="1295.20,2413.60 1295.70,2405.50 1296.80,2400.00 1297.90,2394.50 1298.40,2386.40"/>
    </edge>
    <edge id=":intersection_1_4_6" function="internal">
        <lane id=":intersection_1_4_6_0" index="0" speed="11.11" length="29.85" shape="1298.40,2413.60 1299.35,2404.15 1302.20,2397.40 1306.95,2393.35 1313.60,2392.00"/>
        <lane id=":intersection_1_4_6_1" index="1" speed="10.88" length="27.14" shape="1298.40,2413.60 1299.35,2405.55 1302.20,2399.80 1306.95,2396.35 1313.60,2395.20"/>
        <lane id=":intersection_1_4_6_2" index="2" speed="10.36" length="24.51" shape="1298.40,2413.60 1299.35,2406.95 1302.20,2402.20 1306.95,2399.35 1313.60,2398.40"/>
    </edge>
    <edge id=":intersection_1_4_9" function="internal">
        <lane id=":intersection_1_4_9_0" index="0" speed="6.51" length="9.03" shape="1313.60,2408.00 1311.15,2408.35 1309.40,2409.40 1308.35,2411.15 1308.00,2413.60"/>
        <lane id=":intersection_1_4_9_1" index="1" speed="7.33" length="11.73" shape="1313.60,2408.00 1309.75,2408.35 1307.00,2409.40 1305.35,2411.15 1304.80,2413.60"/>
        <lane id=":intersection_1_4_9_2" index="2" speed="8.10" length="14.57" shape="1313.60,2408.00 1308.35,2408.35 1304.60,2409.40 1302.35,2411.15 1301.60,2413.60"/>
    </edge>
    <edge id=":intersection_1_4_12" function="internal">
        <lane id=":intersection_1_4_12_0" index="0" speed="11.11" length="27.37" shape="1313.60,2404.80 1305.50,2405.30 1300.00,2406.40 1294.50,2407.50 1286.40,2408.00"/>
        <lane id=":intersection_1_4_12_1" index="1" speed="11.11" length="27.37" shape="1313.60,2404.80 1286.40,2404.80"/>
        <lane id=":intersection_1_4_12_2" index="2" speed="11.11" length="27.37" shape="1313.60,2404.80 1305.50,2404.30 1300.00,2403.20 1294.50,2402.10 1286.40,2401.60"/>
    </edge>
    <edge id=":intersection_1_4_15" function="internal">
        <lane id=":intersection_1_4_15_0" index="0" speed="11.11" length="29.85" shape="1313.60,2401.60 1304.15,2400.65 1297.40,2397.80 1293.35,2393.05 1292.00,2386.40"/>
        <lane id=":intersection_1_4_15_1" index="1" speed="10.88" length="27.14" shape="1313.60,2401.60 1305.55,2400.65 1299.80,2397.80 1296.35,2393.05 1295.20,2386.40"/>
        <lane id=":intersection_1_4_15_2" index="2" speed="10.36" length="24.51" shape="1313.60,2401.60 1306.95,2400.65 1302.20,2397.80 1299.35,2393.05 1298.40,2386.40"/>
    </edge>
    <edge id=":intersection_1_4_18" function="internal">
        <lane id=":intersection_1_4_18_0" index="0" speed="6.51" length="9.03" shape="1308.00,2386.40 1308.35,2388.85 1309.40,2390.60 1311.15,2391.65 1313.60,2392.00"/>
        <lane id=":intersection_1_4_18_1" index="1" speed="7.33" length="11.73" shape="1308.00,2386.40 1308.35,2390.25 1309.40,2393.00 1311.15,2394.65 1313.60,2395.20"/>
        <lane id=":intersection_1_4_18_2" index="2" speed="8.10" length="14.57" shape="1308.00,2386.40 1308.35,2391.65 1309.40,2395.40 1311.15,2397.65 1313.60,2398.40"/>
    </edge>
    <edge id=":intersection_1_4_21" function="internal">
        <lane id=":intersection_1_4_21_0" index="0" speed="11.11" length="27.37" shape="1304.80,2386.40 1305.30,2394.50 1306.40,2400.00 1307.50,2405.50 1308.00,2413.60"/>
        <lane id=":intersection_1_4_21_1" index="1" speed="11.11" length="27.37" shape="1304.80,2386.40 1304.80,2413.60"/>
        <lane id=":intersection_1_4_21_2" index="2" speed="11.11" length="27.37" shape="1304.80,2386.40 1304.30,2394.50 1303.20,2400.00 1302.10,2405.50 1301.60,2413.60"/>
    </edge>
    <edge id=":intersection_1_4_24" function="internal">
        <lane id=":intersection_1_4_24_0" index="0" speed="11.11" length="29.85" shape="1301.60,2386.40 1300.65,2395.85 1297.80,2402.60 1293.05,2406.65 1286.40,2408.00"/>
        <lane id=":intersection_1_4_24_1" index="1" speed="10.88" length="27.14" shape="1301.60,2386.40 1300.65,2394.45 1297.80,2400.20 1293.05,2403.65 1286.40,2404.80"/>
        <lane id=":intersection_1_4_24_2" index="2" speed="10.36" length="24.51" shape="1301.60,2386.40 1300.65,2393.05 1297.80,2397.80 1293.05,2400.65 1286.40,2401.60"/>
    </edge>
    <edge id=":intersection_1_4_27" function="internal">
        <lane id=":intersection_1_4_27_0" index="0" speed="6.51" length="9.03" shape="1286.40,2392.00 1288.85,2391.65 1290.60,2390.60 1291.65,2388.85 1292.00,2386.40"/>
        <lane id=":intersection_1_4_27_1" index="1" speed="7.33" length="11.73" shape="1286.40,2392.00 1290.25,2391.65 1293.00,2390.60 1294.65,2388.85 1295.20,2386.40"/>
        <lane id=":intersection_1_4_27_2" index="2" speed="8.10" length="14.57" shape="1286.40,2392.00 1291.65,2391.65 1295.40,2390.60 1297.65,2388.85 1298.40,2386.40"/>
    </edge>
    <edge id=":intersection_1_4_30" function="internal">
        <lane id=":intersection_1_4_30_0" index="0" speed="11.11" length="27.37" shape="1286.40,2395.20 1294.50,2394.70 1300.00,2393.60 1305.50,2392.50 1313.60,2392.00"/>
        <lane id=":intersection_1_4_30_1" index="1" speed="11.11" length="27.37" shape="1286.40,2395.20 1313.60,2395.20"/>
        <lane id=":intersection_1_4_30_2" index="2" speed="11.11" length="27.37" shape="1286.40,2395.20 1294.50,2395.70 1300.00,2396.80 1305.50,2397.90 1313.60,2398.40"/>
    </edge>
    <edge id=":intersection_1_4_33" function="internal">
        <lane id=":intersection_1_4_33_0" index="0" speed="11.11" length="29.85" shape="1286.40,2398.40 1295.85,2399.35 1302.60,2402.20 1306.65,2406.95 1308.00,2413.60"/>
        <lane id=":intersection_1_4_33_1" index="1" speed="10.88" length="27.14" shape="1286.40,2398.40 1294.45,2399.35 1300.20,2402.20 1303.65,2406.95 1304.80,2413.60"/>
        <lane id=":intersection_1_4_33_2" index="2" speed="10.36" length="24.51" shape="1286.40,2398.40 1293.05,2399.35 1297.80,2402.20 1300.65,2406.95 1301.60,2413.60"/>
    </edge>
    <edge id=":intersection_1_5_0" function="internal">