<?xml version="1.0" encoding="UTF-8"?>

<!-- generated on 2023-07-15 20:51:11.851798 by randomTrips.py v1_17_0+0000-737931d58da
<configuration>
    <net-file value="4_4_high/net_convention.net.xml"/>
    <output-trip-file value="4_4_high/trips.trips.xml"/>
    <route-file value="4_4_high/net_convention.rou.xml"/>
    <prefix value="cars"/>
    <trip-attributes value="departLane='best' departSpeed='random' departPos='random'"/>
    <begin value="0"/>
    <end value="3600"/>
    <fringe-factor value="10.0"/>
    <vehicle-class value="passenger"/>
    <period value="0.3"/>
</configuration>
-->

<!-- generated on 2023-07-15 20:51:11 by Eclipse SUMO duarouter Version 1.17.0
<configuration xmlns:xsi="http://www.w3.org/2001/XMLSchema-instance" xsi:noNamespaceSchemaLocation="http://sumo.dlr.de/xsd/duarouterConfiguration.xsd">

    <input>
        <net-file value="4_4_high/net_convention.net.xml"/>
        <route-files value="4_4_high/trips.trips.xml"/>
    </input>

    <output>
        <output-file value="4_4_high/net_convention.rou.xml"/>
        <alternatives-output value="NUL"/>
    </output>

    <time>
        <begin value="0"/>
        <end value="3600"/>
    </time>

    <report>
        <no-warnings value="true"/>
        <ignore-errors value="true"/>
        <no-step-log value="true"/>
    </report>

</configuration>
-->

<routes xmlns:xsi="http://www.w3.org/2001/XMLSchema-instance" xsi:noNamespaceSchemaLocation="http://sumo.dlr.de/xsd/routes_file.xsd">
    <vType id="cars_passenger" vClass="passenger"/>
    <vehicle id="cars0" type="cars_passenger" depart="0.00" departLane="best" departPos="random" departSpeed="random">
        <route edges="road_3_5_3 road_3_4_2 road_2_4_3 road_2_3_2 road_1_3_3 road_1_2_3 road_1_1_2"/>
    </vehicle>
    <vehicle id="cars1" type="cars_passenger" depart="0.30" departLane="best" departPos="random" departSpeed="random">
        <route edges="road_1_3_0 road_2_3_3 road_2_2_2 road_1_2_1 road_1_3_2"/>
    </vehicle>
    <vehicle id="cars2" type="cars_passenger" depart="0.60" departLane="best" departPos="random" departSpeed="random">
        <route edges="road_4_3_3 road_4_2_3 road_4_1_0"/>
    </vehicle>
    <vehicle id="cars3" type="cars_passenger" depart="0.90" departLane="best" departPos="random" departSpeed="random">
        <route edges="road_5_2_2 road_4_2_2 road_3_2_3 road_3_1_2 road_2_1_2 road_1_1_3"/>
    </vehicle>
    <vehicle id="cars4" type="cars_passenger" depart="1.20" departLane="best" departPos="random" departSpeed="random">
        <route edges="road_2_4_2 road_1_4_3 road_1_3_3 road_1_2_3 road_1_1_2"/>
    </vehicle>
    <vehicle id="cars5" type="cars_passenger" depart="1.50" departLane="best" departPos="random" departSpeed="random">
        <route edges="road_1_0_1 road_1_1_0 road_2_1_0 road_3_1_3"/>
    </vehicle>
    <vehicle id="cars6" type="cars_passenger" depart="1.80" departLane="best" departPos="random" departSpeed="random">
        <route edges="road_0_1_0 road_1_1_1 road_1_2_1 road_1_3_2"/>
    </vehicle>
    <vehicle id="cars7" type="cars_passenger" depart="2.10" departLane="best" departPos="random" departSpeed="random">
        <route edges="road_3_5_3 road_3_4_3 road_3_3_3 road_3_2_3 road_3_1_3"/>
    </vehicle>
    <vehicle id="cars8" type="cars_passenger" depart="2.40" departLane="best" departPos="random" departSpeed="random">
        <route edges="road_1_0_1 road_1_1_0 road_2_1_1 road_2_2_0 road_3_2_1 road_3_3_1 road_3_4_0"/>
    </vehicle>
    <vehicle id="cars9" type="cars_passenger" depart="2.70" departLane="best" departPos="random" departSpeed="random">
        <route edges="road_5_1_2 road_4_1_2 road_3_1_2 road_2_1_2 road_1_1_1"/>
    </vehicle>
    <vehicle id="cars10" type="cars_passenger" depart="3.00" departLane="best" departPos="random" departSpeed="random">
        <route edges="road_5_1_2 road_4_1_3 road_4_0_1 road_4_1_0"/>
    </vehicle>
    <vehicle id="cars11" type="cars_passenger" depart="3.30" departLane="best" departPos="random" departSpeed="random">
        <route edges="road_1_5_3 road_1_4_3 road_1_3_3 road_1_2_2"/>
    </vehicle>
    <vehicle id="cars12" type="cars_passenger" depart="3.60" departLane="best" departPos="random" departSpeed="random">
        <route edges="road_5_4_2 road_4_4_2 road_3_4_2 road_2_4_2 road_1_4_2"/>
    </vehicle>
    <vehicle id="cars13" type="cars_passenger" depart="3.90" departLane="best" departPos="random" departSpeed="random">
        <route edges="road_0_2_0 road_1_2_3 road_1_1_3"/>
    </vehicle>
    <vehicle id="cars14" type="cars_passenger" depart="4.20" departLane="best" departPos="random" departSpeed="random">
        <route edges="road_5_1_2 road_4_1_1 road_4_2_1 road_4_3_2 road_3_3_1 road_3_4_1"/>
    </vehicle>
    <vehicle id="cars15" type="cars_passenger" depart="4.50" departLane="best" departPos="random" departSpeed="random">
        <route edges="road_5_1_2 road_4_1_3"/>
    </vehicle>
    <vehicle id="cars16" type="cars_passenger" depart="4.80" departLane="best" departPos="random" departSpeed="random">
        <route edges="road_3_1_1 road_3_2_1 road_3_3_1 road_3_4_0 road_4_4_1"/>
    </vehicle>
    <vehicle id="cars17" type="cars_passenger" depart="5.10" departLane="best" departPos="random" departSpeed="random">
        <route edges="road_2_2_0 road_3_2_1"/>
    </vehicle>
    <vehicle id="cars18" type="cars_passenger" depart="5.40" departLane="best" departPos="random" departSpeed="random">
        <route edges="road_5_1_2 road_4_1_1 road_4_2_1 road_4_3_2 road_3_3_1 road_3_4_1"/>
    </vehicle>
    <vehicle id="cars19" type="cars_passenger" depart="5.70" departLane="best" departPos="random" departSpeed="random">
        <route edges="road_5_2_2 road_4_2_2 road_3_2_1 road_3_3_2"/>
    </vehicle>
    <vehicle id="cars20" type="cars_passenger" depart="6.00" departLane="best" departPos="random" departSpeed="random">
        <route edges="road_4_1_1 road_4_2_2 road_3_2_3 road_3_1_2 road_2_1_2 road_1_1_2"/>
    </vehicle>
    <vehicle id="cars21" type="cars_passenger" depart="6.30" departLane="best" departPos="random" departSpeed="random">
        <route edges="road_1_0_1 road_1_1_1 road_1_2_1 road_1_3_1 road_1_4_1"/>
    </vehicle>
    <vehicle id="cars22" type="cars_passenger" depart="6.60" departLane="best" departPos="random" departSpeed="random">
        <route edges="road_0_2_0 road_1_2_1 road_1_3_2"/>
    </vehicle>
    <vehicle id="cars23" type="cars_passenger" depart="6.90" departLane="best" departPos="random" departSpeed="random">
        <route edges="road_0_3_0 road_1_3_1 road_1_4_1"/>
    </vehicle>
    <vehicle id="cars24" type="cars_passenger" depart="7.20" departLane="best" departPos="random" departSpeed="random">
        <route edges="road_3_5_3 road_3_4_3 road_3_3_3 road_3_2_3 road_3_1_2 road_2_1_1"/>
    </vehicle>
    <vehicle id="cars25" type="cars_passenger" depart="7.50" departLane="best" departPos="random" departSpeed="random">
        <route edges="road_2_1_3 road_2_0_1 road_2_1_1 road_2_2_2 road_1_2_1 road_1_3_2"/>
    </vehicle>
    <vehicle id="cars26" type="cars_passenger" depart="7.80" departLane="best" departPos="random" departSpeed="random">
        <route edges="road_1_2_1 road_1_3_0 road_2_3_0 road_3_3_0 road_4_3_1 road_4_4_0"/>
    </vehicle>
    <vehicle id="cars27" type="cars_passenger" depart="8.10" departLane="best" departPos="random" departSpeed="random">
        <route edges="road_3_5_3 road_3_4_3 road_3_3_2 road_2_3_1 road_2_4_0 road_3_4_1"/>
    </vehicle>
    <vehicle id="cars28" type="cars_passenger" depart="8.40" departLane="best" departPos="random" departSpeed="random">
        <route edges="road_0_4_0 road_1_4_3 road_1_3_0 road_2_3_3 road_2_2_0 road_3_2_3 road_3_1_0 road_4_1_3"/>
    </vehicle>
    <vehicle id="cars29" type="cars_passenger" depart="8.70" departLane="best" departPos="random" departSpeed="random">
        <route edges="road_0_4_0 road_1_4_3 road_1_3_0 road_2_3_3 road_2_2_0"/>
    </vehicle>
    <vehicle id="cars30" type="cars_passenger" depart="9.00" departLane="best" departPos="random" departSpeed="random">
        <route edges="road_5_4_2 road_4_4_2 road_3_4_1"/>
    </vehicle>
    <vehicle id="cars31" type="cars_passenger" depart="9.30" departLane="best" departPos="random" departSpeed="random">
        <route edges="road_3_2_2 road_2_2_3 road_2_1_0 road_3_1_0 road_4_1_0"/>
    </vehicle>
    <vehicle id="cars32" type="cars_passenger" depart="9.60" departLane="best" departPos="random" departSpeed="random">
        <route edges="road_5_1_2 road_4_1_1 road_4_2_0"/>
    </vehicle>
    <vehicle id="cars33" type="cars_passenger" depart="9.90" departLane="best" departPos="random" departSpeed="random">
        <route edges="road_1_0_1 road_1_1_2"/>
    </vehicle>
    <vehicle id="cars34" type="cars_passenger" depart="10.20" departLane="best" departPos="random" departSpeed="random">
        <route edges="road_1_5_3 road_1_4_2 road_0_4_0 road_1_4_1"/>
    </vehicle>
    <vehicle id="cars35" type="cars_passenger" depart="10.50" departLane="best" departPos="random" departSpeed="random">
        <route edges="road_1_0_1 road_1_1_0 road_2_1_1 road_2_2_0 road_3_2_1 road_3_3_1 road_3_4_0 road_4_4_1"/>
    </vehicle>
    <vehicle id="cars36" type="cars_passenger" depart="10.80" departLane="best" departPos="random" departSpeed="random">
        <route edges="road_5_2_2 road_4_2_1 road_4_3_2 road_3_3_1 road_3_4_2 road_2_4_2 road_1_4_2"/>
    </vehicle>
    <vehicle id="cars37" type="cars_passenger" depart="11.10" departLane="best" departPos="random" departSpeed="random">
        <route edges="road_4_0_1 road_4_1_2 road_3_1_1 road_3_2_2 road_2_2_1 road_2_3_0"/>
    </vehicle>
    <vehicle id="cars38" type="cars_passenger" depart="11.40" departLane="best" departPos="random" departSpeed="random">
        <route edges="road_5_3_2 road_4_3_2 road_3_3_1 road_3_4_2 road_2_4_1"/>
    </vehicle>
    <vehicle id="cars39" type="cars_passenger" depart="11.70" departLane="best" departPos="random" departSpeed="random">
        <route edges="road_1_2_0 road_2_2_1 road_2_3_2 road_1_3_1 road_1_4_1"/>
    </vehicle>
    <vehicle id="cars40" type="cars_passenger" depart="12.00" departLane="best" departPos="random" departSpeed="random">
        <route edges="road_3_2_3 road_3_1_2 road_2_1_1 road_2_2_2 road_1_2_1 road_1_3_1 road_1_4_1"/>
    </vehicle>
    <vehicle id="cars41" type="cars_passenger" depart="12.30" departLane="best" departPos="random" departSpeed="random">
        <route edges="road_3_3_3 road_3_2_0 road_4_2_1 road_4_3_1 road_4_4_0"/>
    </vehicle>
    <vehicle id="cars42" type="cars_passenger" depart="12.60" departLane="best" departPos="random" departSpeed="random">
        <route edges="road_2_3_0 road_3_3_3 road_3_2_2 road_2_2_2 road_1_2_1 road_1_3_2"/>
    </vehicle>
    <vehicle id="cars43" type="cars_passenger" depart="12.90" departLane="best" departPos="random" departSpeed="random">
        <route edges="road_5_4_2 road_4_4_3 road_4_3_3 road_4_2_2 road_3_2_3 road_3_1_3"/>
    </vehicle>
    <vehicle id="cars44" type="cars_passenger" depart="13.20" departLane="best" departPos="random" departSpeed="random">
        <route edges="road_0_2_0 road_1_2_3 road_1_1_2"/>
    </vehicle>
    <vehicle id="cars45" type="cars_passenger" depart="13.50" departLane="best" departPos="random" departSpeed="random">
        <route edges="road_0_3_0 road_1_3_0 road_2_3_1 road_2_4_0 road_3_4_1"/>
    </vehicle>
    <vehicle id="cars46" type="cars_passenger" depart="13.80" departLane="best" departPos="random" departSpeed="random">
        <route edges="road_4_5_3 road_4_4_2 road_3_4_2 road_2_4_1"/>
    </vehicle>
    <vehicle id="cars47" type="cars_passenger" depart="14.10" departLane="best" departPos="random" departSpeed="random">
        <route edges="road_0_2_0 road_1_2_0 road_2_2_1"/>
    </vehicle>
    <vehicle id="cars48" type="cars_passenger" depart="14.40" departLane="best" departPos="random" departSpeed="random">
        <route edges="road_5_4_2 road_4_4_3 road_4_3_3 road_4_2_2 road_3_2_3 road_3_1_3"/>
    </vehicle>
    <vehicle id="cars49" type="cars_passenger" depart="14.70" departLane="best" departPos="random" departSpeed="random">
        <route edges="road_5_4_2 road_4_4_3 road_4_3_0"/>
    </vehicle>
    <vehicle id="cars50" type="cars_passenger" depart="15.00" departLane="best" departPos="random" departSpeed="random">
        <route edges="road_0_1_0 road_1_1_0 road_2_1_0 road_3_1_0 road_4_1_3"/>
    </vehicle>
    <vehicle id="cars51" type="cars_passenger" depart="15.30" departLane="best" departPos="random" departSpeed="random">
        <route edges="road_4_0_1 road_4_1_2 road_3_1_3"/>
    </vehicle>
    <vehicle id="cars52" type="cars_passenger" depart="15.60" departLane="best" departPos="random" departSpeed="random">
        <route edges="road_1_2_1 road_1_3_0 road_2_3_0 road_3_3_1 road_3_4_2"/>
    </vehicle>
    <vehicle id="cars53" type="cars_passenger" depart="15.90" departLane="best" departPos="random" departSpeed="random">
        <route edges="road_0_3_0 road_1_3_1 road_1_4_0 road_2_4_1"/>
    </vehicle>
    <vehicle id="cars54" type="cars_passenger" depart="16.20" departLane="best" departPos="random" departSpeed="random">
        <route edges="road_2_5_3 road_2_4_0 road_3_4_0 road_4_4_1"/>
    </vehicle>
    <vehicle id="cars55" type="cars_passenger" depart="16.50" departLane="best" departPos="random" departSpeed="random">
        <route edges="road_5_2_2 road_4_2_1 road_4_3_2 road_3_3_1 road_3_4_2 road_2_4_2 road_1_4_1"/>
    </vehicle>
    <vehicle id="cars56" type="cars_passenger" depart="16.80" departLane="best" departPos="random" departSpeed="random">
        <route edges="road_3_0_1 road_3_1_2 road_2_1_1 road_2_2_2 road_1_2_1 road_1_3_0"/>
    </vehicle>
    <vehicle id="cars57" type="cars_passenger" depart="17.10" departLane="best" departPos="random" departSpeed="random">
        <route edges="road_5_3_2 road_4_3_3 road_4_2_2 road_3_2_1 road_3_3_0 road_4_3_0"/>
    </vehicle>
    <vehicle id="cars58" type="cars_passenger" depart="17.40" departLane="best" departPos="random" departSpeed="random">
        <route edges="road_1_4_3 road_1_3_0 road_2_3_1 road_2_4_0 road_3_4_1"/>
    </vehicle>
    <vehicle id="cars59" type="cars_passenger" depart="17.70" departLane="best" departPos="random" departSpeed="random">
        <route edges="road_3_5_3 road_3_4_2 road_2_4_3 road_2_3_2 road_1_3_3 road_1_2_2"/>
    </vehicle>
    <vehicle id="cars60" type="cars_passenger" depart="18.00" departLane="best" departPos="random" departSpeed="random">
        <route edges="road_4_5_3 road_4_4_3 road_4_3_3 road_4_2_3 road_4_1_2 road_3_1_3"/>
    </vehicle>
    <vehicle id="cars61" type="cars_passenger" depart="18.30" departLane="best" departPos="random" departSpeed="random">
        <route edges="road_4_5_3 road_4_4_3 road_4_3_3 road_4_2_3 road_4_1_2 road_3_1_3"/>
    </vehicle>
    <vehicle id="cars62" type="cars_passenger" depart="18.60" departLane="best" departPos="random" departSpeed="random">
        <route edges="road_0_1_0 road_1_1_1 road_1_2_1 road_1_3_1 road_1_4_2"/>
    </vehicle>
    <vehicle id="cars63" type="cars_passenger" depart="18.90" departLane="best" departPos="random" departSpeed="random">
        <route edges="road_0_1_0 road_1_1_1 road_1_2_0 road_2_2_1 road_2_3_0 road_3_3_0 road_4_3_1 road_4_4_0"/>
    </vehicle>
    <vehicle id="cars64" type="cars_passenger" depart="19.20" departLane="best" departPos="random" departSpeed="random">
        <route edges="road_5_2_2 road_4_2_1 road_4_3_0"/>
    </vehicle>
    <vehicle id="cars65" type="cars_passenger" depart="19.50" departLane="best" departPos="random" departSpeed="random">
        <route edges="road_1_5_3 road_1_4_3 road_1_3_3 road_1_2_3 road_1_1_2"/>
    </vehicle>
    <vehicle id="cars66" type="cars_passenger" depart="19.80" departLane="best" departPos="random" departSpeed="random">
        <route edges="road_5_2_2 road_4_2_1 road_4_3_1 road_4_4_1"/>
    </vehicle>
    <vehicle id="cars67" type="cars_passenger" depart="20.10" departLane="best" departPos="random" departSpeed="random">
        <route edges="road_0_2_0 road_1_2_0 road_2_2_3 road_2_1_0 road_3_1_1"/>
    </vehicle>
    <vehicle id="cars68" type="cars_passenger" depart="20.40" departLane="best" departPos="random" departSpeed="random">
        <route edges="road_0_2_0 road_1_2_0 road_2_2_0 road_3_2_0 road_4_2_0"/>
    </vehicle>
    <vehicle id="cars69" type="cars_passenger" depart="20.70" departLane="best" departPos="random" departSpeed="random">
        <route edges="road_4_5_3 road_4_4_2 road_3_4_3 road_3_3_2 road_2_3_3 road_2_2_2 road_1_2_2"/>
    </vehicle>
    <vehicle id="cars70" type="cars_passenger" depart="21.00" departLane="best" departPos="random" departSpeed="random">
        <route edges="road_2_5_3 road_2_4_3 road_2_3_0 road_3_3_3 road_3_2_0"/>
    </vehicle>
    <vehicle id="cars71" type="cars_passenger" depart="21.30" departLane="best" departPos="random" departSpeed="random">
        <route edges="road_1_2_1 road_1_3_0 road_2_3_0 road_3_3_0 road_4_3_0"/>
    </vehicle>
    <vehicle id="cars72" type="cars_passenger" depart="21.60" departLane="best" departPos="random" departSpeed="random">
        <route edges="road_2_4_2 road_1_4_3 road_1_3_2"/>
    </vehicle>
    <vehicle id="cars73" type="cars_passenger" depart="21.90" departLane="best" departPos="random" departSpeed="random">
        <route edges="road_3_1_1 road_3_2_0 road_4_2_3 road_4_1_3"/>
    </vehicle>
    <vehicle id="cars74" type="cars_passenger" depart="22.20" departLane="best" departPos="random" departSpeed="random">
        <route edges="road_1_0_1 road_1_1_1 road_1_2_1 road_1_3_1 road_1_4_2"/>
    </vehicle>
    <vehicle id="cars75" type="cars_passenger" depart="22.50" departLane="best" departPos="random" departSpeed="random">
        <route edges="road_5_4_2 road_4_4_2 road_3_4_3"/>
    </vehicle>
    <vehicle id="cars76" type="cars_passenger" depart="22.80" departLane="best" departPos="random" departSpeed="random">
        <route edges="road_2_5_3 road_2_4_3 road_2_3_0 road_3_3_3 road_3_2_3 road_3_1_3"/>
    </vehicle>
    <vehicle id="cars77" type="cars_passenger" depart="23.10" departLane="best" departPos="random" departSpeed="random">
        <route edges="road_0_3_0 road_1_3_1 road_1_4_0 road_2_4_3 road_2_3_2 road_1_3_2"/>
    </vehicle>
    <vehicle id="cars78" type="cars_passenger" depart="23.40" departLane="best" departPos="random" departSpeed="random">
        <route edges="road_1_5_3 road_1_4_0 road_2_4_0 road_3_4_0"/>
    </vehicle>
    <vehicle id="cars79" type="cars_passenger" depart="23.70" departLane="best" departPos="random" departSpeed="random">
        <route edges="road_1_0_1 road_1_1_1 road_1_2_1 road_1_3_2"/>
    </vehicle>
    <vehicle id="cars80" type="cars_passenger" depart="24.00" departLane="best" departPos="random" departSpeed="random">
        <route edges="road_0_2_0 road_1_2_1 road_1_3_0 road_2_3_1 road_2_4_0 road_3_4_1"/>
    </vehicle>
    <vehicle id="cars81" type="cars_passenger" depart="24.30" departLane="best" departPos="random" departSpeed="random">
        <route edges="road_1_0_1 road_1_1_0 road_2_1_1 road_2_2_0 road_3_2_1 road_3_3_0 road_4_3_1 road_4_4_0"/>
    </vehicle>
    <vehicle id="cars82" type="cars_passenger" depart="24.60" departLane="best" departPos="random" departSpeed="random">
        <route edges="road_5_2_2 road_4_2_2 road_3_2_3 road_3_1_2 road_2_1_2 road_1_1_3"/>
    </vehicle>
    <vehicle id="cars83" type="cars_passenger" depart="24.90" departLane="best" departPos="random" departSpeed="random">
        <route edges="road_1_0_1 road_1_1_0 road_2_1_0 road_3_1_0 road_4_1_0"/>
    </vehicle>
    <vehicle id="cars84" type="cars_passenger" depart="25.20" departLane="best" departPos="random" departSpeed="random">
        <route edges="road_1_0_1 road_1_1_1 road_1_2_2"/>
    </vehicle>
    <vehicle id="cars85" type="cars_passenger" depart="25.50" departLane="best" departPos="random" departSpeed="random">
        <route edges="road_5_3_2 road_4_3_2 road_3_3_1"/>
    </vehicle>
    <vehicle id="cars86" type="cars_passenger" depart="25.80" departLane="best" departPos="random" departSpeed="random">
        <route edges="road_2_5_3 road_2_4_0 road_3_4_3 road_3_3_0 road_4_3_3 road_4_2_0"/>
    </vehicle>
    <vehicle id="cars87" type="cars_passenger" depart="26.10" departLane="best" departPos="random" departSpeed="random">
        <route edges="road_5_1_2 road_4_1_1 road_4_2_2 road_3_2_1 road_3_3_2 road_2_3_2 road_1_3_2"/>
    </vehicle>
    <vehicle id="cars88" type="cars_passenger" depart="26.40" departLane="best" departPos="random" departSpeed="random">
        <route edges="road_0_2_0 road_1_2_1 road_1_3_1 road_1_4_0 road_2_4_1"/>
    </vehicle>
    <vehicle id="cars89" type="cars_passenger" depart="26.70" departLane="best" departPos="random" departSpeed="random">
        <route edges="road_2_4_2 road_1_4_3 road_1_3_0 road_2_3_1 road_2_4_1"/>
    </vehicle>
    <vehicle id="cars90" type="cars_passenger" depart="27.00" departLane="best" departPos="random" departSpeed="random">
        <route edges="road_4_3_1 road_4_4_2 road_3_4_3 road_3_3_0 road_4_3_3 road_4_2_3 road_4_1_0"/>
    </vehicle>
    <vehicle id="cars91" type="cars_passenger" depart="27.30" departLane="best" departPos="random" departSpeed="random">
        <route edges="road_5_4_2 road_4_4_3 road_4_3_2 road_3_3_3 road_3_2_2 road_2_2_3 road_2_1_2 road_1_1_3"/>
    </vehicle>
    <vehicle id="cars92" type="cars_passenger" depart="27.60" departLane="best" departPos="random" departSpeed="random">
        <route edges="road_2_3_1 road_2_4_2 road_1_4_2"/>
    </vehicle>
    <vehicle id="cars93" type="cars_passenger" depart="27.90" departLane="best" departPos="random" departSpeed="random">
        <route edges="road_5_2_2 road_4_2_1 road_4_3_2 road_3_3_1 road_3_4_2 road_2_4_2 road_1_4_1"/>
    </vehicle>
    <vehicle id="cars94" type="cars_passenger" depart="28.20" departLane="best" departPos="random" departSpeed="random">
        <route edges="road_0_4_0 road_1_4_0 road_2_4_1"/>
    </vehicle>
    <vehicle id="cars95" type="cars_passenger" depart="28.50" departLane="best" departPos="random" departSpeed="random">
        <route edges="road_2_4_2 road_1_4_1"/>
    </vehicle>
    <vehicle id="cars96" type="cars_passenger" depart="28.80" departLane="best" departPos="random" departSpeed="random">
        <route edges="road_1_0_1 road_1_1_0 road_2_1_1 road_2_2_0 road_3_2_1 road_3_3_0 road_4_3_1 road_4_4_0"/>
    </vehicle>
    <vehicle id="cars97" type="cars_passenger" depart="29.10" departLane="best" departPos="random" departSpeed="random">
        <route edges="road_2_5_3 road_2_4_0 road_3_4_3 road_3_3_0 road_4_3_0"/>
    </vehicle>
    <vehicle id="cars98" type="cars_passenger" depart="29.40" departLane="best" departPos="random" departSpeed="random">
        <route edges="road_3_2_1 road_3_3_2 road_2_3_3 road_2_2_2 road_1_2_3 road_1_1_2"/>
    </vehicle>
    <vehicle id="cars99" type="cars_passenger" depart="29.70" departLane="best" departPos="random" departSpeed="random">
        <route edges="road_5_4_2 road_4_4_3 road_4_3_0"/>
    </vehicle>
    <vehicle id="cars100" type="cars_passenger" depart="30.00" departLane="best" departPos="random" departSpeed="random">
        <route edges="road_5_4_2 road_4_4_1 road_4_5_3 road_4_4_0"/>
    </vehicle>
    <vehicle id="cars101" type="cars_passenger" depart="30.30" departLane="best" departPos="random" departSpeed="random">
        <route edges="road_5_1_2 road_4_1_2 road_3_1_2 road_2_1_2 road_1_1_1 road_1_2_2"/>
    </vehicle>
    <vehicle id="cars102" type="cars_passenger" depart="30.60" departLane="best" departPos="random" departSpeed="random">
        <route edges="road_3_0_1 road_3_1_2 road_2_1_1 road_2_2_2 road_1_2_1 road_1_3_2"/>
    </vehicle>
    <vehicle id="cars103" type="cars_passenger" depart="30.90" departLane="best" departPos="random" departSpeed="random">
        <route edges="road_2_3_1 road_2_4_2 road_1_4_3 road_1_3_3 road_1_2_3 road_1_1_2"/>
    </vehicle>
    <vehicle id="cars104" type="cars_passenger" depart="31.20" departLane="best" departPos="random" departSpeed="random">
        <route edges="road_2_2_0 road_3_2_1 road_3_3_1 road_3_4_0 road_4_4_1"/>
    </vehicle>
    <vehicle id="cars105" type="cars_passenger" depart="31.50" departLane="best" departPos="random" departSpeed="random">
        <route edges="road_1_2_1 road_1_3_0 road_2_3_0 road_3_3_0 road_4_3_3 road_4_2_0"/>
    </vehicle>
    <vehicle id="cars106" type="cars_passenger" depart="31.80" departLane="best" departPos="random" departSpeed="random">
        <route edges="road_2_5_3 road_2_4_0 road_3_4_3 road_3_3_2 road_2_3_1 road_2_4_1"/>
    </vehicle>
    <vehicle id="cars107" type="cars_passenger" depart="32.10" departLane="best" departPos="random" departSpeed="random">
        <route edges="road_5_4_2 road_4_4_3"/>
    </vehicle>
    <vehicle id="cars108" type="cars_passenger" depart="32.40" departLane="best" departPos="random" departSpeed="random">
        <route edges="road_3_2_2 road_2_2_3 road_2_1_0 road_3_1_0 road_4_1_3"/>
    </vehicle>
    <vehicle id="cars109" type="cars_passenger" depart="32.70" departLane="best" departPos="random" departSpeed="random">
        <route edges="road_0_4_0 road_1_4_1 road_1_5_3 road_1_4_2"/>
    </vehicle>
    <vehicle id="cars110" type="cars_passenger" depart="33.00" departLane="best" departPos="random" departSpeed="random">
        <route edges="road_5_4_2 road_4_4_2 road_3_4_3 road_3_3_2"/>
    </vehicle>
    <vehicle id="cars111" type="cars_passenger" depart="33.30" departLane="best" departPos="random" departSpeed="random">
        <route edges="road_3_1_2 road_2_1_1 road_2_2_0 road_3_2_3 road_3_1_0 road_4_1_3"/>
    </vehicle>
    <vehicle id="cars112" type="cars_passenger" depart="33.60" departLane="best" departPos="random" departSpeed="random">
        <route edges="road_0_2_0 road_1_2_0 road_2_2_1 road_2_3_0 road_3_3_3"/>
    </vehicle>
    <vehicle id="cars113" type="cars_passenger" depart="33.90" departLane="best" departPos="random" departSpeed="random">
        <route edges="road_3_0_1 road_3_1_1 road_3_2_0 road_4_2_1 road_4_3_0"/>
    </vehicle>
    <vehicle id="cars114" type="cars_passenger" depart="34.20" departLane="best" departPos="random" departSpeed="random">
        <route edges="road_0_4_0 road_1_4_0 road_2_4_0 road_3_4_0 road_4_4_1"/>
    </vehicle>
    <vehicle id="cars115" type="cars_passenger" depart="34.50" departLane="best" departPos="random" departSpeed="random">
        <route edges="road_0_2_0 road_1_2_1 road_1_3_2"/>
    </vehicle>
    <vehicle id="cars116" type="cars_passenger" depart="34.80" departLane="best" departPos="random" departSpeed="random">
        <route edges="road_3_4_3 road_3_3_3 road_3_2_0 road_4_2_3 road_4_1_0"/>
    </vehicle>
    <vehicle id="cars117" type="cars_passenger" depart="35.10" departLane="best" departPos="random" departSpeed="random">
        <route edges="road_1_0_1 road_1_1_1 road_1_2_1"/>
    </vehicle>
    <vehicle id="cars118" type="cars_passenger" depart="35.40" departLane="best" departPos="random" departSpeed="random">
        <route edges="road_5_2_2 road_4_2_1 road_4_3_2 road_3_3_1 road_3_4_2 road_2_4_2 road_1_4_1"/>
    </vehicle>
    <vehicle id="cars119" type="cars_passenger" depart="35.70" departLane="best" departPos="random" departSpeed="random">
        <route edges="road_3_4_2 road_2_4_3 road_2_3_0 road_3_3_1 road_3_4_1"/>
    </vehicle>
    <vehicle id="cars120" type="cars_passenger" depart="36.00" departLane="best" departPos="random" departSpeed="random">
        <route edges="road_2_4_0 road_3_4_3 road_3_3_3"/>
    </vehicle>
    <vehicle id="cars121" type="cars_passenger" depart="36.30" departLane="best" departPos="random" departSpeed="random">
        <route edges="road_3_0_1 road_3_1_1 road_3_2_1 road_3_3_0 road_4_3_1 road_4_4_0"/>
    </vehicle>
    <vehicle id="cars122" type="cars_passenger" depart="36.60" departLane="best" departPos="random" departSpeed="random">
        <route edges="road_1_0_1 road_1_1_0 road_2_1_0 road_3_1_0 road_4_1_3"/>
    </vehicle>
    <vehicle id="cars123" type="cars_passenger" depart="36.90" departLane="best" departPos="random" departSpeed="random">
        <route edges="road_1_0_1 road_1_1_1 road_1_2_0 road_2_2_1 road_2_3_0"/>
    </vehicle>
    <vehicle id="cars124" type="cars_passenger" depart="37.20" departLane="best" departPos="random" departSpeed="random">
        <route edges="road_4_0_1 road_4_1_2 road_3_1_1 road_3_2_2 road_2_2_1 road_2_3_2 road_1_3_1 road_1_4_2"/>
    </vehicle>
    <vehicle id="cars125" type="cars_passenger" depart="37.50" departLane="best" departPos="random" departSpeed="random">
        <route edges="road_1_5_3 road_1_4_0 road_2_4_3 road_2_3_0 road_3_3_3 road_3_2_0 road_4_2_3 road_4_1_3"/>
    </vehicle>
    <vehicle id="cars126" type="cars_passenger" depart="37.80" departLane="best" departPos="random" departSpeed="random">
        <route edges="road_0_2_0 road_1_2_1 road_1_3_1 road_1_4_0 road_2_4_1"/>
    </vehicle>
    <vehicle id="cars127" type="cars_passenger" depart="38.10" departLane="best" departPos="random" departSpeed="random">
        <route edges="road_5_4_2 road_4_4_3"/>
    </vehicle>
    <vehicle id="cars128" type="cars_passenger" depart="38.40" departLane="best" departPos="random" departSpeed="random">
        <route edges="road_0_2_0 road_1_2_1 road_1_3_2"/>
    </vehicle>
    <vehicle id="cars129" type="cars_passenger" depart="38.70" departLane="best" departPos="random" departSpeed="random">
        <route edges="road_1_2_1 road_1_3_0 road_2_3_0 road_3_3_0 road_4_3_1 road_4_4_0"/>